Version 4
SHEET 1 1508 680
WIRE 576 -128 80 -128
WIRE 896 -128 576 -128
WIRE 1344 -128 896 -128
WIRE 576 -96 576 -128
WIRE 80 -80 80 -128
WIRE 576 16 576 -16
WIRE 576 16 464 16
WIRE 464 32 464 16
WIRE 576 32 576 16
WIRE 896 32 896 -128
WIRE 80 48 80 0
WIRE 80 48 64 48
WIRE 272 48 272 16
WIRE 80 64 80 48
WIRE 832 80 800 80
WIRE 576 128 576 112
WIRE 592 128 576 128
WIRE 800 128 800 80
WIRE 800 128 592 128
WIRE 272 144 272 128
WIRE 384 144 272 144
WIRE 464 144 464 96
WIRE 480 144 464 144
WIRE 896 144 896 128
WIRE 896 144 480 144
WIRE 896 160 896 144
WIRE 272 176 272 144
WIRE 896 176 896 160
WIRE 1008 176 896 176
WIRE 1136 176 1072 176
WIRE 0 224 -64 224
WIRE 80 224 80 144
WIRE 80 224 64 224
WIRE 208 224 80 224
WIRE 1136 224 1136 176
WIRE 1344 224 1344 -128
WIRE 576 240 576 128
WIRE 640 240 576 240
WIRE 80 256 80 224
WIRE 640 272 640 240
WIRE 896 272 896 176
WIRE 272 320 272 272
WIRE 576 320 272 320
WIRE 832 320 768 320
WIRE 272 368 272 320
WIRE 1344 368 1344 256
WIRE -64 384 -64 304
WIRE 640 400 640 368
WIRE 768 400 768 320
WIRE 768 400 640 400
WIRE 640 416 640 400
WIRE 80 496 80 336
WIRE 272 496 272 448
WIRE 272 496 80 496
WIRE 448 496 272 496
WIRE 640 496 448 496
WIRE 896 496 896 368
WIRE 896 496 640 496
FLAG 0 48 0
FLAG 272 -48 0
FLAG 448 496 0
FLAG 1136 304 0
FLAG -64 384 0
FLAG 1344 368 0
DATAFLAG 80 224 ""
DATAFLAG 272 144 ""
DATAFLAG 272 320 ""
DATAFLAG 480 144 ""
DATAFLAG 576 16 ""
DATAFLAG 592 128 ""
DATAFLAG 896 160 ""
DATAFLAG 640 400 ""
SYMBOL cap 64 208 R90
WINDOW 0 0 32 VBottom 2
WINDOW 3 32 32 VTop 2
SYMATTR InstName C2
SYMATTR Value 470n
SYMBOL polcap 64 32 R90
WINDOW 0 0 32 VBottom 2
WINDOW 3 32 32 VTop 2
SYMATTR InstName C1
SYMATTR Value 100µ
SYMATTR Description Capacitor
SYMATTR Type cap
SYMATTR SpiceLine V=25 Irms=250m Rser=0.6 Lser=0 mfg="Nichicon" pn="UPG1E101MPH" type="Al electrolytic"
SYMBOL res 64 -96 R0
SYMATTR InstName R1
SYMATTR Value 39k
SYMBOL res 64 48 R0
SYMATTR InstName R2
SYMATTR Value 100k
SYMBOL res 64 240 R0
SYMATTR InstName R3
SYMATTR Value 100k
SYMBOL pnp 208 272 M180
SYMATTR InstName Q1
SYMATTR Value BC557B
SYMBOL res 256 352 R0
SYMATTR InstName R6
SYMATTR Value 8.2k
SYMBOL res 256 32 R0
SYMATTR InstName R4
SYMATTR Value 220
SYMBOL polcap 288 16 R180
WINDOW 0 24 57 Left 2
WINDOW 3 24 8 Left 2
SYMATTR InstName C3
SYMATTR Value 220µ
SYMATTR Description Capacitor
SYMATTR Type cap
SYMATTR SpiceLine V=25 Irms=600m Rser=0.13 Lser=0
SYMBOL res 480 128 R90
WINDOW 0 0 56 VBottom 2
WINDOW 3 32 56 VTop 2
SYMATTR InstName R5
SYMATTR Value 2.7k
SYMBOL npn 576 272 R0
SYMATTR InstName Q2
SYMATTR Value 2N3053
SYMBOL res 624 400 R0
SYMATTR InstName R9
SYMATTR Value 2.2k
SYMBOL polcap 448 32 R0
WINDOW 3 24 56 Left 2
SYMATTR Value 470µ
SYMATTR InstName C4
SYMATTR Description Capacitor
SYMATTR Type cap
SYMATTR SpiceLine V=25 Irms=750m Rser=0.16 Lser=0
SYMBOL res 560 -112 R0
SYMATTR InstName R7
SYMATTR Value 47
SYMBOL res 560 16 R0
SYMATTR InstName R8
SYMATTR Value 180
SYMBOL npn 832 32 R0
SYMATTR InstName Q3
SYMATTR Value 2SC5200
SYMBOL npn 832 272 R0
SYMATTR InstName Q4
SYMATTR Value 2SC5200
SYMBOL polcap 1008 192 R270
WINDOW 0 32 32 VTop 2
WINDOW 3 0 32 VBottom 2
SYMATTR InstName C5
SYMATTR Value 2200µ
SYMATTR Description Capacitor
SYMATTR Type cap
SYMATTR SpiceLine V=35 Irms=1.7 Rser=0.05 Lser=0
SYMBOL res 1120 208 R0
SYMATTR InstName R10
SYMATTR Value 4
SYMBOL MiniSyms4\\voltage- 1344 240 R0
WINDOW 123 0 0 Left 2
WINDOW 39 0 0 Left 2
SYMATTR InstName V1
SYMATTR Value 12
SYMBOL MiniSyms4\\voltage- -64 288 R0
WINDOW 123 11 39 Left 2
WINDOW 39 0 0 Left 2
SYMATTR InstName V2
SYMATTR Value SINE(0 0.1 50)
TEXT -88 520 Left 2 !.tran 100m
